LAMMPS (5 Jun 2019)
#CORONENE NVT
units		real
atom_style	charge

#DATA
read_data	coronene.data
  orthogonal box = (-12 -12 -12) to (12 12 12)
  reading atoms ...
  36 atoms
replicate 	4 2 2
  orthogonal box = (-12 -12 -12) to (84 36 36)
  576 atoms
  replicate CPU = 0.000827685 secs

#INTERATOMIC POTENTIAL
pair_style  	reax/c NULL
pair_coeff 	* * ./ffield.reax.CHO2016 C H
fix         	1 all qeq/reax 1 0.0 10.0 1.0e-6 reax/c

#OUTPUT LOG
thermo_style    custom  step temp pe ke etotal press
thermo          1000
thermo_modify  	flush yes

#OUTPUT STRUCTURE
dump		1 all cfg 10000 coronene.*.cfg mass type xs ys zs
dump_modify 	1 element C H
dump 		2 all custom 10000  coronene.*.pos id type x y z vx vy vz
restart		200000 coronene.*.restart

#MOLECULAR DYNAMICS
timestep	0.1
velocity	all create 2000 8983764
fix 		2 all nve
run 		1000
  update every 1 steps, delay 10 steps, check yes
Step Temp PotEng KinEng TotEng Press
0         2000   -75085.961    3427.9316    -71658.03    1549.3913
Loop time of 5.00332 on 16 procs for 1000 steps with 576 atoms

unfix		2
fix             3 all nvt temp 3500.0 3500.0 10.0
run		10000000
Step Temp PotEng KinEng TotEng Press
1000     1044.077   -73457.053    1789.5123   -71667.541    89.829171
Averages over the last 569 of 1138 rows, steps 570000 to 1138000:
Temp PotEng KinEng TotEng Press
3495.64 -66500.6 5991.41 -60509.2 47.084
